************** CS AMP Basic Optimization **********
* Common-source amplifier

.subckt CSAMP_$index vs vo 
.model nch nmos level=1 vto=0.5 kp=50u tox=15n 
.param rd=995
.param kp=50u
.param vov = '$VOV_1 *1'    
.param w_n='$W_1 *1'

vs   vs   0    ac  1 dc '0.5+vov'  
vb   vb   0    2.5

rs   vs   vg   '2*rd' 
rd   vb   vo   'rd'
m1   vo   vg   0  0  nch   w=w_n  l=1u
****Bias Current 
.param ib = 'kp*w_n*vov*vov/2e-6'
ib   0    vo   'ib'  

cl   vo   0    1e-12
.ends
